Version 4.1
SHEET 1 1212 708
WIRE 720 -96 496 -96
WIRE 1152 -96 1152 -192
WIRE 992 -80 992 -208
WIRE 720 -64 720 -96
WIRE 496 -16 496 -96
WIRE 448 0 400 0
WIRE 608 32 496 32
WIRE 128 64 -64 64
WIRE 720 64 720 16
WIRE 400 80 400 0
WIRE 400 80 320 80
WIRE 576 80 496 80
WIRE 992 80 992 0
WIRE 1152 80 1152 -16
WIRE 128 96 64 96
WIRE -64 112 -64 64
WIRE 576 112 576 80
WIRE 672 112 576 112
WIRE 576 128 576 112
WIRE 496 144 496 80
WIRE 672 208 672 112
WIRE 496 256 496 224
WIRE 496 256 368 256
WIRE -64 272 -64 192
WIRE 496 304 496 256
WIRE 576 320 576 192
WIRE 624 320 576 320
WIRE 672 320 672 288
WIRE 672 320 624 320
WIRE 64 400 64 96
WIRE 192 400 64 400
WIRE 496 432 496 384
WIRE 560 432 496 432
WIRE 624 432 624 320
WIRE 624 432 560 432
WIRE 496 464 496 432
WIRE 368 480 368 256
WIRE 368 480 352 480
WIRE 352 512 352 480
WIRE 192 528 192 400
WIRE 336 560 304 560
WIRE 448 560 432 560
WIRE 304 640 304 560
WIRE 384 640 384 560
WIRE 384 640 304 640
WIRE 448 640 448 560
WIRE 448 640 384 640
WIRE 192 688 192 608
FLAG 992 80 0
FLAG 1152 80 0
FLAG 608 32 vdd1
FLAG 992 -208 vdd1
FLAG 1152 -192 vss1
FLAG 720 64 vss1
FLAG -64 272 vss1
FLAG 560 432 vss1
FLAG 192 688 0
FLAG 448 640 0
DATAFLAG 96 64 ""
DATAFLAG 352 80 ""
DATAFLAG 576 112 ""
DATAFLAG 576 112 ""
DATAFLAG 576 112 ""
DATAFLAG 128 400 ""
DATAFLAG 64 128 ""
DATAFLAG 496 -64 ""
SYMBOL pmos4 448 80 M180
SYMATTR InstName M1
SYMATTR Value p_65
SYMATTR Value2 l=65n w=2000u
SYMBOL voltage 720 -80 R0
WINDOW 123 24 44 Left 2
WINDOW 39 0 0 Left 0
SYMATTR Value2 AC 0 0
SYMATTR InstName V1
SYMATTR Value 1.4
SYMBOL res 480 288 R0
SYMATTR InstName R2
SYMATTR Value 100k
SYMBOL cap 560 128 R0
SYMATTR InstName C1
SYMATTR Value 50p
SYMBOL current 672 208 R0
WINDOW 123 24 108 Left 2
WINDOW 39 0 0 Left 0
SYMATTR Value2 AC 1
SYMATTR InstName I1
SYMATTR Value 100m
SYMBOL voltage -64 96 R0
WINDOW 123 24 124 Left 2
WINDOW 39 0 0 Left 0
SYMATTR InstName V2
SYMATTR Value 0.706
SYMBOL voltage 992 -96 R0
WINDOW 123 0 0 Left 0
WINDOW 39 0 0 Left 0
SYMATTR InstName V4
SYMATTR Value 1.4
SYMBOL res 480 128 R0
SYMATTR InstName R1
SYMATTR Value 70k
SYMBOL voltage 1152 -112 R0
WINDOW 123 0 0 Left 0
WINDOW 39 0 0 Left 0
SYMATTR InstName V3
SYMATTR Value 0
SYMBOL voltage 192 512 R0
WINDOW 123 24 124 Left 2
WINDOW 39 0 0 Left 0
SYMATTR Value2 AC 1
SYMATTR InstName V5
SYMATTR Value 707.225m
SYMBOL nmos4 432 512 R90
SYMATTR InstName M2
SYMBOL FC_SingleEnded 224 80 R0
SYMATTR InstName X2
TEXT -744 -200 Left 2 !.include 65nm_bulk.txt
TEXT -784 -176 Left 2 !.OPTIONS ALLOW_AMBIGUOUS_MODELS
TEXT 80 464 Left 2 ;.op
TEXT 880 528 Left 2 !.ac dec 10 1 10G
TEXT 880 648 Left 2 ;.tran 0 20u 0.1u 0.01u
