Version 4.1
SHEET 1 888 772
WIRE 544 -176 544 -208
WIRE 688 -160 688 -224
WIRE 352 -64 112 -64
WIRE 544 -48 544 -176
WIRE 688 -48 688 -160
WIRE 352 0 352 -64
WIRE 112 16 112 -64
WIRE 224 64 112 64
WIRE 256 64 224 64
WIRE -304 80 -576 80
WIRE 64 96 -112 96
WIRE -304 112 -416 112
WIRE 352 112 352 80
WIRE -576 144 -576 80
WIRE 112 160 112 112
WIRE 208 160 112 160
WIRE 304 160 208 160
WIRE 352 160 352 112
WIRE 208 224 208 160
WIRE 112 240 112 160
WIRE -576 288 -576 224
WIRE -576 320 -576 288
WIRE 304 336 304 160
WIRE 112 368 112 320
WIRE 112 368 -144 368
WIRE 112 416 112 368
WIRE 208 448 208 288
WIRE 256 448 208 448
WIRE 304 448 304 416
WIRE 304 448 256 448
WIRE -416 512 -416 112
WIRE -144 544 -144 368
WIRE 112 560 112 496
WIRE 192 560 112 560
WIRE 256 560 256 448
WIRE 256 560 192 560
WIRE -160 592 -224 592
WIRE -32 592 -64 592
WIRE -224 704 -224 592
WIRE -112 704 -112 592
WIRE -112 704 -224 704
WIRE -32 704 -32 592
WIRE -32 704 -112 704
WIRE -416 752 -416 592
FLAG -416 752 0
FLAG -32 704 0
FLAG 544 32 0
FLAG 688 32 0
FLAG 544 -176 vdd1
FLAG 688 -160 vss1
FLAG 352 112 vss1
FLAG -576 288 vss1
FLAG 224 64 vdd1
FLAG 192 560 vss1
DATAFLAG -48 96 ""
DATAFLAG -176 384 ""
DATAFLAG -432 80 ""
DATAFLAG 112 -32 ""
SYMBOL voltage 352 -16 R0
WINDOW 123 24 124 Left 2
WINDOW 39 0 0 Left 0
SYMATTR Value2 AC 0 0
SYMATTR InstName V1
SYMATTR Value 1.4
SYMBOL voltage -576 128 R0
WINDOW 123 0 0 Left 0
WINDOW 39 0 0 Left 0
SYMATTR InstName V2
SYMATTR Value 0.706
SYMBOL voltage 688 -64 R0
WINDOW 123 0 0 Left 0
WINDOW 39 0 0 Left 0
SYMATTR InstName V3
SYMATTR Value 0
SYMBOL voltage 544 -64 R0
WINDOW 123 0 0 Left 0
WINDOW 39 0 0 Left 0
SYMATTR InstName V4
SYMATTR Value 1.4
SYMBOL voltage -416 496 R0
WINDOW 123 24 124 Left 2
WINDOW 39 0 0 Left 0
SYMATTR Value2 AC 1
SYMATTR InstName V5
SYMATTR Value 712.22073m
SYMBOL FC_SingleEnded -208 96 R0
SYMATTR InstName X1
SYMBOL pmos4 64 16 R0
SYMATTR InstName p_65
SYMATTR Value2 l=65n w=2000u
SYMBOL nmos4 -64 544 R90
SYMATTR InstName M1
SYMBOL res 96 224 R0
SYMATTR InstName R1
SYMATTR Value 70k
SYMBOL res 96 400 R0
SYMATTR InstName R2
SYMATTR Value 100k
SYMBOL cap 192 224 R0
SYMATTR InstName C1
SYMATTR Value 50p
SYMBOL current 304 336 R0
WINDOW 123 24 108 Left 2
WINDOW 39 0 0 Left 0
SYMATTR Value2 AC 0
SYMATTR InstName I1
SYMATTR Value PULSE(1m 100m 0 0.1u 0.1u 1u 5u)
TEXT -600 -288 Left 2 !.include 65nm_bulk.txt
TEXT -632 -248 Left 2 !.OPTIONS ALLOW_AMBIGUOUS_MODELS
TEXT 456 752 Left 2 !.tran 0 20u 0.1u 0.01u
TEXT 472 680 Left 2 ;.ac dec 10 1 10G
TEXT -240 456 Left 2 ;.op
