Version 4.1
SHEET 1 1200 1112
WIRE 928 -656 928 -688
WIRE 1136 -640 1136 -672
WIRE 928 -608 928 -656
WIRE 1136 -592 1136 -640
WIRE -560 -480 -816 -480
WIRE 48 -480 -208 -480
WIRE 832 -448 816 -448
WIRE 928 -432 928 -528
WIRE 816 -416 816 -448
WIRE 1136 -416 1136 -512
WIRE -816 -400 -816 -480
WIRE -208 -400 -208 -480
WIRE 816 -368 816 -416
WIRE 736 -304 656 -304
WIRE 960 -304 896 -304
WIRE -816 -224 -816 -320
WIRE -208 -224 -208 -320
WIRE 816 -192 816 -240
WIRE 816 -176 816 -192
WIRE 656 -96 656 -304
WIRE 736 -96 656 -96
WIRE 960 -96 960 -304
WIRE 960 -96 800 -96
WIRE -1424 -48 -1424 -80
WIRE -192 -16 -192 -32
WIRE -1424 0 -1424 -48
WIRE -192 48 -192 -16
WIRE 336 48 288 48
WIRE 400 48 336 48
WIRE 960 80 960 -96
WIRE 960 80 848 80
WIRE 992 80 960 80
WIRE 1008 80 992 80
WIRE 480 112 480 48
WIRE 656 112 656 -96
WIRE 656 112 480 112
WIRE 720 112 656 112
WIRE 656 144 480 144
WIRE 720 144 656 144
WIRE -1424 176 -1424 80
WIRE 960 176 848 176
WIRE 976 176 960 176
WIRE 1008 176 976 176
WIRE 304 208 208 208
WIRE 400 208 304 208
WIRE 480 208 480 144
WIRE -192 224 -192 128
WIRE -1392 320 -1392 288
WIRE 656 336 656 144
WIRE 752 336 656 336
WIRE 960 336 960 176
WIRE 960 336 816 336
WIRE -1392 368 -1392 320
WIRE 832 384 816 384
WIRE 816 416 816 384
WIRE -192 432 -192 384
WIRE -192 464 -192 432
WIRE 816 464 816 416
WIRE -608 496 -608 464
WIRE -608 528 -608 496
WIRE 656 528 656 336
WIRE 736 528 656 528
WIRE 960 528 960 336
WIRE 960 528 896 528
WIRE -1392 544 -1392 448
WIRE -1040 592 -1040 544
WIRE -1040 640 -1040 592
WIRE -192 640 -192 544
WIRE 816 640 816 592
WIRE 816 656 816 640
WIRE -608 672 -608 608
WIRE -1040 816 -1040 720
FLAG 1136 -416 0
FLAG 1136 -640 vdd
FLAG 928 -432 0
FLAG 928 -656 vss
FLAG 992 80 voutp1
FLAG 976 176 voutn1
FLAG 656 144 vin_p1
FLAG 656 112 vin_n1
FLAG -208 -224 0
FLAG -816 -224 0
FLAG -1424 176 0
FLAG -1424 -48 vres
FLAG -608 672 0
FLAG -1040 816 0
FLAG -1040 592 vsin
FLAG -608 496 vdd_half
FLAG 816 -416 vres
FLAG 816 -192 vresb
FLAG 816 416 vres
FLAG 816 640 vresb
FLAG -192 224 0
FLAG -192 640 0
FLAG 304 208 vin_p
FLAG -192 432 vin_p
FLAG 336 48 vin_n
FLAG -192 -16 vin_n
FLAG -1392 544 0
FLAG -1392 320 vresb
DATAFLAG 912 80 ""
DATAFLAG 912 176 ""
DATAFLAG 608 112 ""
DATAFLAG 608 144 ""
SYMBOL voltage 1136 -608 R0
WINDOW 123 0 0 Left 0
WINDOW 39 0 0 Left 0
SYMATTR InstName V1
SYMATTR Value 1.2
SYMBOL voltage 928 -624 R0
WINDOW 123 0 0 Left 0
WINDOW 39 0 0 Left 0
SYMATTR InstName V2
SYMATTR Value 0
SYMBOL FC_OTA 816 128 R0
SYMATTR InstName X1
SYMBOL voltage -208 -416 R0
WINDOW 123 24 124 Left 2
WINDOW 39 0 0 Left 0
SYMATTR Value2 AC 1 0
SYMATTR InstName V3
SYMATTR Value PULSE(0.4 0.8 0 100n 100n 50u 100u)
SYMBOL voltage -816 -416 R0
WINDOW 123 24 124 Left 2
WINDOW 39 0 0 Left 0
SYMATTR Value2 AC 1 0
SYMATTR InstName V4
SYMATTR Value PULSE(0.35 0.15 0 100n 100n 50u 100u)
SYMBOL voltage -1424 -16 R0
WINDOW 123 24 124 Left 2
WINDOW 39 0 0 Left 0
SYMATTR Value2 AC 1 0
SYMATTR InstName V5
SYMATTR Value PULSE(0 1.2 10u 1n 1n 2u 20u)
SYMBOL voltage -608 512 R0
WINDOW 123 0 0 Left 0
WINDOW 39 0 0 Left 0
SYMATTR InstName V7
SYMATTR Value 0.6
SYMBOL voltage -1040 624 R0
WINDOW 123 24 124 Left 2
WINDOW 39 0 0 Left 0
WINDOW 3 24 44 Left 2
SYMATTR Value2 AC 1 0
SYMATTR InstName V8
SYMATTR Value SINE(0.1 0.1 10k 0 0 0)
SYMBOL cap 800 -112 R90
WINDOW 0 0 32 VBottom 2
WINDOW 3 32 32 VTop 2
SYMATTR InstName C5
SYMATTR Value 1p
SYMBOL cap 816 320 R90
WINDOW 0 0 32 VBottom 2
WINDOW 3 32 32 VTop 2
SYMATTR InstName C6
SYMATTR Value 1p
SYMBOL res 496 192 R90
WINDOW 0 0 56 VBottom 2
WINDOW 3 32 56 VTop 2
SYMATTR InstName R3
SYMATTR Value 5Meg
SYMBOL res 496 32 R90
WINDOW 0 0 56 VBottom 2
WINDOW 3 32 56 VTop 2
SYMATTR InstName R4
SYMATTR Value 5Meg
SYMBOL TG_Switch 816 -304 R0
SYMATTR InstName X2
SYMBOL TG_Switch 816 528 R0
SYMATTR InstName X3
SYMBOL voltage -192 32 R0
WINDOW 123 24 124 Left 2
WINDOW 39 0 0 Left 0
SYMATTR Value2 AC 0 0
SYMATTR InstName V9
SYMATTR Value 0.8
SYMBOL voltage -192 448 R0
WINDOW 123 24 124 Left 2
WINDOW 39 0 0 Left 0
SYMATTR Value2 AC 0 0
SYMATTR InstName V10
SYMATTR Value 0.4
SYMBOL voltage -1392 352 R0
WINDOW 123 24 124 Left 2
WINDOW 39 0 0 Left 0
SYMATTR Value2 AC 1 0
SYMATTR InstName V6
SYMATTR Value PULSE(1.2 0 10u 1n 1n 2u 20u)
TEXT 432 -648 Left 2 !.include 65nm_bulk.txt
TEXT 400 -608 Left 2 !.OPTIONS ALLOW_AMBIGUOUS_MODELS
TEXT 424 -560 Left 2 ;.op
TEXT 424 -520 Left 2 ;.ac dec 10 1 10G
TEXT 424 -488 Left 2 !.tran 0 4m 0 1u
