Version 4.1
SHEET 1 1444 1008
WIRE -416 -864 -416 -896
WIRE -208 -848 -208 -880
WIRE -416 -816 -416 -864
WIRE -208 -800 -208 -848
WIRE -1904 -688 -2160 -688
WIRE -1296 -688 -1552 -688
WIRE -416 -640 -416 -736
WIRE -1296 -624 -1296 -688
WIRE -208 -624 -208 -720
WIRE -2160 -608 -2160 -688
WIRE -1552 -608 -1552 -688
WIRE -1904 -592 -1904 -688
WIRE -2160 -432 -2160 -528
WIRE -1904 -432 -1904 -592
WIRE -1904 -432 -2032 -432
WIRE -1792 -432 -1904 -432
WIRE -1552 -432 -1552 -528
WIRE -1296 -432 -1296 -624
WIRE -1296 -432 -1424 -432
WIRE -1184 -432 -1296 -432
WIRE -2032 -368 -2032 -432
WIRE -1792 -368 -1792 -432
WIRE -1424 -368 -1424 -432
WIRE -1184 -368 -1184 -432
WIRE -1968 -320 -2032 -320
WIRE -1936 -320 -1968 -320
WIRE -1728 -320 -1792 -320
WIRE -1696 -320 -1728 -320
WIRE -1360 -320 -1424 -320
WIRE -1328 -320 -1360 -320
WIRE -1120 -320 -1184 -320
WIRE -1088 -320 -1120 -320
WIRE -2144 -288 -2192 -288
WIRE -2080 -288 -2144 -288
WIRE -1520 -288 -1584 -288
WIRE -1472 -288 -1520 -288
WIRE -2768 -256 -2768 -288
WIRE -2096 -224 -2192 -224
WIRE -1840 -224 -1840 -288
WIRE -1840 -224 -2096 -224
WIRE -1504 -224 -1584 -224
WIRE -1232 -224 -1232 -288
WIRE -1232 -224 -1504 -224
WIRE -2768 -208 -2768 -256
WIRE -2032 -208 -2032 -272
WIRE -1792 -208 -1792 -272
WIRE -1792 -208 -2032 -208
WIRE -1424 -208 -1424 -272
WIRE -1296 -208 -1424 -208
WIRE -1184 -208 -1184 -272
WIRE -1184 -208 -1296 -208
WIRE -1296 -112 -1296 -208
WIRE -1296 -48 -1296 -112
WIRE -2768 -32 -2768 -128
WIRE -2608 -16 -2608 -48
WIRE -2608 32 -2608 -16
WIRE -336 80 -480 80
WIRE -320 80 -336 80
WIRE -1296 112 -1296 16
WIRE -672 112 -736 112
WIRE -608 112 -672 112
WIRE -672 144 -736 144
WIRE -608 144 -672 144
WIRE -352 176 -480 176
WIRE -320 176 -352 176
WIRE -2608 208 -2608 112
WIRE -1952 288 -1952 256
WIRE -1952 320 -1952 288
WIRE -2384 384 -2384 336
WIRE -576 400 -688 400
WIRE -320 400 -496 400
WIRE -2384 432 -2384 384
WIRE -848 432 -896 432
WIRE -736 432 -784 432
WIRE -688 432 -688 400
WIRE -688 432 -736 432
WIRE -1952 464 -1952 400
WIRE -320 480 -320 400
WIRE -688 496 -688 432
WIRE -576 496 -688 496
WIRE -320 496 -320 480
WIRE -320 496 -512 496
WIRE -2384 608 -2384 512
WIRE -560 672 -672 672
WIRE -304 672 -480 672
WIRE -896 704 -928 704
WIRE -832 704 -896 704
WIRE -736 704 -768 704
WIRE -672 704 -672 672
WIRE -672 704 -736 704
WIRE -304 736 -304 672
WIRE -672 768 -672 704
WIRE -560 768 -672 768
WIRE -304 768 -304 736
WIRE -304 768 -496 768
FLAG -208 -624 0
FLAG -208 -848 vdd
FLAG -416 -640 0
FLAG -416 -864 vss
FLAG -736 432 vin_p1
FLAG -736 704 vin_n1
FLAG -896 432 vip
FLAG -320 480 voutn1
FLAG -304 736 voutp1
FLAG -336 80 voutp1
FLAG -352 176 voutn1
FLAG -672 144 vin_p1
FLAG -672 112 vin_n1
FLAG -1296 112 0
FLAG -1360 -320 vss
FLAG -1120 -320 vdd
FLAG -1552 -432 0
FLAG -1968 -320 vss
FLAG -1728 -320 vdd
FLAG -2160 -432 0
FLAG -2768 -32 0
FLAG -2608 208 0
FLAG -2768 -256 clk
FLAG -2144 -288 clk
FLAG -1520 -288 clk
FLAG -2608 -16 clkb
FLAG -2096 -224 clkb
FLAG -1504 -224 clkb
FLAG -896 704 vin
FLAG -1296 -112 vin1
FLAG -1904 -592 vip
FLAG -1296 -624 vin
FLAG -1952 464 0
FLAG -2384 608 0
FLAG -2384 384 vsin
FLAG -1952 288 vdd_half
DATAFLAG -640 672 ""
DATAFLAG -368 672 ""
DATAFLAG -336 448 ""
DATAFLAG -624 400 ""
DATAFLAG -320 720 ""
DATAFLAG -320 400 ""
DATAFLAG -416 80 ""
DATAFLAG -416 176 ""
DATAFLAG -864 432 ""
DATAFLAG -1296 -176 ""
DATAFLAG -864 704 ""
DATAFLAG -864 432 ""
DATAFLAG -720 112 ""
DATAFLAG -720 144 ""
SYMBOL voltage -208 -816 R0
WINDOW 123 0 0 Left 0
WINDOW 39 0 0 Left 0
SYMATTR InstName V1
SYMATTR Value 1.2
SYMBOL voltage -416 -832 R0
WINDOW 123 0 0 Left 0
WINDOW 39 0 0 Left 0
SYMATTR InstName V2
SYMATTR Value 0
SYMBOL FC_OTA -512 128 R0
SYMATTR InstName X2
SYMBOL res -464 656 R90
WINDOW 0 0 56 VBottom 2
WINDOW 3 32 56 VTop 2
SYMATTR InstName R3
SYMATTR Value {R}
SYMBOL cap -496 752 R90
WINDOW 0 0 32 VBottom 2
WINDOW 3 32 32 VTop 2
SYMATTR InstName C5
SYMATTR Value 500f
SYMBOL cap -768 688 R90
WINDOW 0 0 32 VBottom 2
WINDOW 3 32 32 VTop 2
SYMATTR InstName C6
SYMATTR Value 1p
SYMBOL res -480 384 R90
WINDOW 0 0 56 VBottom 2
WINDOW 3 32 56 VTop 2
SYMATTR InstName R4
SYMATTR Value {R}
SYMBOL cap -512 480 R90
WINDOW 0 0 32 VBottom 2
WINDOW 3 32 32 VTop 2
SYMATTR InstName C7
SYMATTR Value 500f
SYMBOL cap -784 416 R90
WINDOW 0 0 32 VBottom 2
WINDOW 3 32 32 VTop 2
SYMATTR InstName C8
SYMATTR Value 1p
SYMBOL cap -1312 -48 R0
SYMATTR InstName C13
SYMATTR Value 1p
SYMBOL nmos4 -1472 -368 R0
SYMATTR InstName M1
SYMATTR Value n_65
SYMATTR Value2 l=65n w=0.3u
SYMBOL pmos4 -1232 -368 R0
SYMATTR InstName M2
SYMATTR Value p_65
SYMATTR Value2 l=65n w=0.6u
SYMBOL voltage -1552 -624 R0
WINDOW 123 24 124 Left 2
WINDOW 39 0 0 Left 0
SYMATTR Value2 AC 1 0
SYMATTR InstName V10
SYMATTR Value PULSE(0.4 0.8 0 100n 100n 50u 100u)
SYMBOL nmos4 -2080 -368 R0
SYMATTR InstName M3
SYMATTR Value n_65
SYMATTR Value2 l=65n w=0.3u
SYMBOL pmos4 -1840 -368 R0
SYMATTR InstName M4
SYMATTR Value p_65
SYMATTR Value2 l=65n w=0.6u
SYMBOL voltage -2160 -624 R0
WINDOW 123 24 124 Left 2
WINDOW 39 0 0 Left 0
SYMATTR Value2 AC 1 0
SYMATTR InstName V11
SYMATTR Value PULSE(0.35 0.15 0 100n 100n 50u 100u)
SYMBOL voltage -2768 -224 R0
WINDOW 123 24 124 Left 2
WINDOW 39 0 0 Left 0
SYMATTR Value2 AC 1 0
SYMATTR InstName V12
SYMATTR Value PULSE(0 1.2 0 1n 1n 100n 20u)
SYMBOL voltage -2608 16 R0
WINDOW 123 24 124 Left 2
WINDOW 39 0 0 Left 0
SYMATTR Value2 AC 1 0
SYMATTR InstName V13
SYMATTR Value PULSE(1.2 0 0 1n 1n 100n 20u)
SYMBOL voltage -1952 304 R0
WINDOW 123 0 0 Left 0
WINDOW 39 0 0 Left 0
SYMATTR InstName V3
SYMATTR Value 0.6
SYMBOL voltage -2384 416 R0
WINDOW 123 24 124 Left 2
WINDOW 39 0 0 Left 0
WINDOW 3 24 44 Left 2
SYMATTR Value2 AC 1 0
SYMATTR InstName V4
SYMATTR Value SINE(0.1 0.1 10k 0 0 0)
TEXT -912 -856 Left 2 !.include 65nm_bulk.txt
TEXT -944 -816 Left 2 !.OPTIONS ALLOW_AMBIGUOUS_MODELS
TEXT -920 -768 Left 2 ;.op
TEXT -920 -728 Left 2 ;.ac dec 10 1 10G
TEXT -920 -696 Left 2 !.tran 0 4m 0 1u
TEXT -744 888 Left 2 !.param R=5000Meg
